  
       XFOIL         Version 6.99
  
 Calculated polar for: NACA 0024                                       
  
 1 1 Reynolds number fixed          Mach number fixed         
  
 xtrf =   1.000 (top)        1.000 (bottom)  
 Mach =   0.000     Re =     0.500 e 6     Ncrit =   9.000  9.000
  
   alpha    CL        CD       CDp       CM     Top_Xtr  Bot_Xtr  Top_Itr  Bot_Itr
  ------ -------- --------- --------- -------- -------- -------- -------- --------
   0.000   0.0000   0.01049   0.00196  -0.0000   0.5416   0.5416  40.7021 260.2976
   0.500   0.0498   0.01051   0.00196   0.0014   0.5212   0.5629  42.3836 262.0403
   1.000   0.0990   0.01054   0.00197   0.0029   0.5015   0.5844  44.0226 263.7819
   1.500   0.1486   0.01057   0.00199   0.0043   0.4818   0.6065  45.6894 265.5528
   2.000   0.1978   0.01064   0.00201   0.0058   0.4630   0.6292  47.2922 267.3662
   2.500   0.2467   0.01074   0.00204   0.0073   0.4446   0.6526  48.8878 269.2240
   3.000   0.2956   0.01085   0.00208   0.0088   0.4265   0.6767  50.4773 271.1250
   3.500   0.3432   0.01101   0.00213   0.0106   0.4093   0.7013  52.0106 273.0580
   4.000   0.3913   0.01116   0.00219   0.0122   0.3918   0.7263  53.5907 275.0213
   4.500   0.4378   0.01137   0.00226   0.0141   0.3755   0.7516  55.0959 277.0074
   5.000   0.4842   0.01159   0.00235   0.0161   0.3591   0.7770  56.6438 279.0102
   5.500   0.5283   0.01187   0.00244   0.0184   0.3437   0.8025  58.1185 281.0257
   6.000   0.5695   0.01215   0.00253   0.0213   0.3284   0.8279  59.6133 283.0607
   6.500   0.6095   0.01255   0.00267   0.0244   0.3141   0.8531  61.0432 285.1082
   7.000   0.6516   0.01300   0.00287   0.0270   0.2995   0.8776  62.5373 287.1439
   7.500   0.6906   0.01359   0.00311   0.0300   0.2860   0.9014  63.9596 289.2013
   8.000   0.7294   0.01420   0.00337   0.0330   0.2726   0.9241  65.4087 291.2690
   8.500   0.7669   0.01496   0.00367   0.0361   0.2597   0.9456  66.8288 293.3648
   9.000   0.8113   0.01585   0.00404   0.0375   0.2469   0.9635  68.2997 295.2708
   9.500   0.8677   0.01693   0.00454   0.0361   0.2335   0.9753  69.8793 296.6293
  10.000   0.9330   0.01810   0.00511   0.0324   0.2200   0.9820  71.5451 297.4548
  10.500   0.9955   0.01943   0.00575   0.0290   0.2075   0.9885  73.1431 298.2816
  11.000   1.0567   0.02084   0.00645   0.0254   0.1954   0.9945  74.7627 299.1072
  12.000   1.1132   0.02365   0.00751   0.0293   0.1774   1.0000  77.3019 300.0000
  12.500   1.1108   0.02512   0.00792   0.0365   0.1709   1.0000  78.2812 300.0000
  13.000   1.1182   0.02695   0.00863   0.0413   0.1640   1.0000  79.3426 300.0000
  13.500   1.1313   0.02917   0.00964   0.0446   0.1570   1.0000  80.4414 300.0000
  14.000   1.1466   0.03176   0.01095   0.0467   0.1504   1.0000  81.5402 300.0000
  14.500   1.1615   0.03473   0.01253   0.0482   0.1441   1.0000  82.6172 300.0000
  15.000   1.1751   0.03806   0.01440   0.0493   0.1381   1.0000  83.6649 300.0000
  15.500   1.1869   0.04176   0.01655   0.0499   0.1326   1.0000  84.6809 300.0000
  16.000   1.1969   0.04581   0.01898   0.0502   0.1274   1.0000  85.6672 300.0000
  16.500   1.2050   0.05022   0.02170   0.0502   0.1225   1.0000  86.6255 300.0000
  17.000   1.2110   0.05498   0.02472   0.0499   0.1179   1.0000  87.5502 300.0000
  17.500   1.2152   0.06007   0.02803   0.0492   0.1136   1.0000  88.4424 300.0000
  18.000   1.2179   0.06544   0.03161   0.0484   0.1096   1.0000  89.3030 300.0000
  18.500   1.2196   0.07101   0.03541   0.0472   0.1058   1.0000  90.1288 300.0000
  19.000   1.2210   0.07673   0.03943   0.0459   0.1022   1.0000  90.9547 300.0000
  19.500   1.2219   0.08266   0.04380   0.0442   0.0986   1.0000  91.7968 300.0000
  20.000   1.2223   0.08868   0.04841   0.0423   0.0952   1.0000  92.6076 300.0000
  20.500   1.2234   0.09465   0.05318   0.0402   0.0921   1.0000  93.3756 300.0000
  21.000   1.2265   0.10037   0.05795   0.0380   0.0892   1.0000  94.1109 300.0000
  21.500   1.2284   0.10637   0.06338   0.0354   0.0863   1.0000  94.8755 300.0000
  22.000   1.2300   0.11245   0.06933   0.0325   0.0834   1.0000  95.6424 300.0000
  22.500   1.2343   0.11810   0.07512   0.0296   0.0808   1.0000  96.3553 300.0000
  23.000   1.2440   0.12295   0.08014   0.0269   0.0784   1.0000  97.0238 300.0000
  23.500   1.2441   0.12930   0.08777   0.0231   0.0759   1.0000  97.7686 300.0000
  24.000   1.2480   0.13502   0.09497   0.0195   0.0735   1.0000  98.4648 300.0000
  24.500   1.2598   0.13950   0.10050   0.0163   0.0714   1.0000  99.0869 300.0000
  25.000   1.2615   0.14555   0.10907   0.0120   0.0692   1.0000  99.7895 300.0000
